OPT_V9/Results/My_campus_w_initial_sub_3_active_27_03_13_05/powerflow_results_t3.txt
Pandapower Network Debug Info
==================================================

BUS:
       vm_pu  va_degree      p_mw    q_mvar
0   1.166378  -8.215306 -0.101538 -0.435857
1   0.973146   4.149173 -0.022690  0.063711
2   0.967786   1.280108 -0.005123  0.027520
3   0.952921   0.362199  0.024347  0.061872
4   1.120006   2.008546 -0.051523 -0.063463
5   0.965959  -2.072035  0.039403 -0.011503
6   1.161104  -3.472580 -0.033776 -0.133171
7   1.044096  -1.325171 -0.004180 -0.083365
8   0.969049   3.242631 -0.010097  0.038287
9   1.000100  -0.000327 -0.001109 -0.807423
10  0.999258   0.027946 -0.014945  0.522318
11  0.998695   0.035788  0.006993  1.011132
12  0.993303   0.116216  0.002613  1.006711
13  0.992742   0.108042  0.440534  1.008327
14  0.993132   0.120420  0.007477  1.012168
15  0.999668   0.010903  0.000000  0.000000
16  0.999668   0.010776  0.000000  0.000000
17  0.999997   0.000523  0.000000  0.000000
18  0.999997   0.000523  0.000000  0.000000
19  0.993846   0.102074  0.000000  0.000000
20  0.993847   0.101947  0.000000  0.000000
21  0.999996   0.000581  0.000000  0.000000
22  0.999996   0.000581  0.000000  0.000000
23  1.000000   0.000000 -0.382751 -3.339758
24  0.999999   0.000478  0.000000  0.000000
--------------------------------------------------

LINE:
    p_from_mw  q_from_mvar   p_to_mw  q_to_mvar         pl_mw       ql_mvar  i_from_ka   i_to_ka      i_ka  vm_from_pu  va_from_degree  vm_to_pu  va_to_degree  loading_percent
0   -0.038144     0.506827  0.038224  -0.506652  7.954241e-05  1.749749e-04   0.019563  0.019563  0.019563    0.999999        0.000478  0.999668      0.010903         3.691126
1    0.000010     0.001000 -0.000010  -0.001000  7.925304e-10  1.743384e-09   0.000038  0.000038  0.000038    0.999999        0.000478  0.999997      0.000523         0.007262
2    0.420837     2.826931 -0.413265  -2.810275  7.571817e-03  1.665625e-02   0.110008  0.110008  0.110008    0.999999        0.000478  0.993846      0.102074        20.756188
3    0.000010     0.001000 -0.000010  -0.001000  1.814969e-09  2.656052e-09   0.000038  0.000038  0.000038    0.999999        0.000478  0.999996      0.000581         0.011321
4   -0.000950    -0.807074  0.001109   0.807423  1.586653e-04  3.490270e-04   0.031075  0.031075  0.031075    0.999668        0.010903  1.000100     -0.000327         5.863143
5   -0.014795     0.522536  0.014945  -0.522318  1.493003e-04  2.184883e-04   0.020127  0.020127  0.020127    0.999668        0.010903  0.999258      0.027946         5.919759
6    0.007439     1.012114 -0.006993  -1.011132  4.463872e-04  9.819488e-04   0.038970  0.038970  0.038970    0.999668        0.010903  0.998695      0.035788         7.352888
7    0.002863     1.007261 -0.002613  -1.006711  2.500430e-04  5.500369e-04   0.039010  0.039010  0.039010    0.993846        0.102074  0.993303      0.116216         7.360324
8    0.441129     1.009403 -0.440534  -1.008327  5.951704e-04  1.075675e-03   0.042663  0.042663  0.042663    0.993846        0.102074  0.992742      0.108042         9.274467
9    0.007806     1.012893 -0.007477  -1.012168  3.296892e-04  7.252401e-04   0.039229  0.039229  0.039229    0.993846        0.102074  0.993132      0.120420         7.401669
10  -0.032681    -0.382168  0.101538   0.435857  6.885704e-02  5.368897e-02   0.553809  0.553809  0.553809    0.999668        0.010776  1.166378     -8.215306       240.786692
11  -0.018525     0.066958  0.022690  -0.063711  4.165408e-03  3.247837e-03   0.100310  0.100310  0.100310    0.999668        0.010776  0.973146      4.149173        43.613139
12  -0.004661     0.028537  0.005123  -0.027520  4.622510e-04  1.016845e-03   0.041750  0.041750  0.041750    0.999668        0.010776  0.967786      1.280108         7.877285
13   0.025939     0.064749 -0.024347  -0.061872  1.592007e-03  2.877296e-03   0.100711  0.100711  0.100711    0.999668        0.010776  0.952921      0.362199        21.893747
14  -0.047568    -0.054762  0.051523   0.063463  3.955341e-03  8.700837e-03   0.105346  0.105346  0.105346    0.993847        0.101947  1.120006      2.008546        19.876579
15   0.040961    -0.010288 -0.039403   0.011503  1.557367e-03  1.214304e-03   0.061335  0.061335  0.061335    0.993847        0.101947  0.965959     -2.072035        26.667605
16  -0.021747    -0.115569  0.033776   0.133171  1.202844e-02  1.760259e-02   0.170788  0.170788  0.170788    0.993847        0.101947  1.161104     -3.472580        50.231618
17  -0.002001    -0.079427  0.004180   0.083365  2.178692e-03  3.937637e-03   0.115389  0.115389  0.115389    0.993847        0.101947  1.044096     -1.325171        25.084628
18  -0.008188     0.039776  0.010097  -0.038287  1.908539e-03  1.488119e-03   0.058978  0.058978  0.058978    0.993847        0.101947  0.969049      3.242631        25.642549
--------------------------------------------------

TRAFO:
    p_hv_mw  q_hv_mvar       p_lv_mw     q_lv_mvar     pl_mw   ql_mvar   i_hv_ka       i_lv_ka  vm_hv_pu  va_hv_degree  vm_lv_pu  va_lv_degree  loading_percent
0 -0.029917  -0.220924  2.992783e-02  2.219233e-01  0.000010  0.000999  0.008584  3.233257e-01  0.999668      0.010903  0.999668      0.010776         2.240066
1  0.000010   0.001000  1.455188e-11  2.175604e-17  0.000010  0.001000  0.000038  2.100388e-11  0.999997      0.000523  0.999997      0.000523         0.010000
2 -0.038534  -0.219283  3.854395e-02  2.202705e-01  0.000010  0.000988  0.008623  3.247623e-01  0.993846      0.102074  0.993847      0.101947         2.250019
3  0.000010   0.001000 -2.251020e-21  2.220438e-16  0.000010  0.001000  0.000038  3.204938e-16  0.999996      0.000581  0.999996      0.000581         0.010000
4  0.382751   3.339758 -3.827125e-01 -3.335758e+00  0.000038  0.004000  0.027726  1.292358e-01  1.000000      0.000000  0.999999      0.000478         8.404047
--------------------------------------------------
